38
Properties=species:S:1:pos:R:3 pbc="F F F"
C       -6.96313641       0.32751163       0.00163003
C       -5.69518444      -0.51749681       0.00052011
C       -4.43771807       0.34810530       0.00049323
C       -3.15889555      -0.48574892       0.00032242
C       -1.90771909       0.38942783      -0.00134205
C       -0.62492908      -0.43821774      -0.00173797
C        0.62516733       0.43841079      -0.00156115
C        1.90783894      -0.38933175      -0.00117664
C        3.15895430       0.48583245      -0.00025079
C        4.43754489      -0.34829631       0.00039834
C        5.69498806       0.51728277       0.00093298
C        6.96308114      -0.32749416       0.00156785
H       -7.84744218      -0.30552734       0.00125793
H       -6.99695764       0.96503546      -0.87927401
H       -6.99651274       0.96337628       0.88374789
H       -5.68916055      -1.16234003      -0.88126102
H       -5.68839229      -1.16352101       0.88143122
H       -4.44609152       0.99380146       0.88204586
H       -4.44629082       0.99391571      -0.88097848
H       -3.14862862      -1.13263302      -0.88038501
H       -3.14735156      -1.13100782       0.88220931
H       -1.91952377       1.03607366       0.87941407
H       -1.92095501       1.03483778      -0.88297568
H       -0.61273911      -1.08384674      -0.88314894
H       -0.61262200      -1.08429628       0.87933586
H        0.61285190       1.08443266       0.87955157
H        0.61333291       1.08411206      -0.88290411
H        1.92086550      -1.03492185      -0.88266722
H        1.91998153      -1.03581931       0.87967703
H        3.14760649       1.13185246       0.88108432
H        3.14857543       1.13194972      -0.88152722
H        4.44620526      -0.99406861      -0.88110935
H        4.44544870      -0.99403703       0.88194207
H        5.68808698       1.16275991       0.88224945
H        5.68889946       1.16264550      -0.88047218
H        6.99645517      -0.96409271       0.88315652
H        7.84723436       0.30575499       0.00189962
H        6.99721924      -0.96425826      -0.87987289
