17
Properties=species:S:1:pos:R:3 pbc="F F F"
C       -7.67047119       0.00010216      -0.00010860
C       -6.36218180      -0.00012354       0.00003130
C       -5.09671613      -0.00011358       0.00015306
C       -3.81706248       0.00005315       0.00000493
C       -2.54748198       0.00002277      -0.00002005
C       -1.27241793       0.00002696      -0.00001703
C        0.00000013       0.00001499      -0.00001318
C        1.27241798       0.00000674      -0.00000724
C        2.54748185       0.00000639      -0.00000402
C        3.81706251       0.00000301      -0.00000125
C        5.09671521      -0.00000009      -0.00000145
C        6.36218164      -0.00000408       0.00000338
C        7.67047114      -0.00001382      -0.00000358
H       -8.23442311      -0.72430313      -0.56610837
H       -8.23434148       0.72455722       0.56592020
H        8.23438904       0.56600848      -0.72442203
H        8.23438749      -0.56603675       0.72441627
