41
Properties=species:S:1:pos:R:3 pbc="F F F"
C       -7.59064185       0.40733605      -0.00047326
C       -6.33563949      -0.45673189       0.00271704
C       -5.06444538       0.38865726      -0.00086795
C       -3.80072158      -0.46783833       0.00057311
C       -2.53241062       0.38210095      -0.00041033
C       -1.26711767      -0.47220213      -0.00097337
C        0.00010976       0.37921542      -0.00051978
C        1.26698859      -0.47273878      -0.00124049
C        2.53252418       0.38117475      -0.00010809
C        3.80081733      -0.46878992      -0.00059521
C        5.06428155       0.38808878       0.00089073
C        6.33594053      -0.45660057      -0.00045919
C        7.59032871       0.40838507       0.00138636
H       -8.48414106      -0.21267657       0.00264768
H       -7.61527033       1.04051126      -0.88483038
H       -7.61445477       1.04822492       0.87833213
H       -6.33934161      -1.10569153      -0.87609997
H       -6.33897071      -1.09866226       0.88668421
H       -5.06140593       1.03706049       0.87870726
H       -5.06283401       1.03183436      -0.88427525
H       -3.80191825      -1.11520803      -0.87980978
H       -3.80213164      -1.11271380       0.88278599
H       -2.53076270       1.02838926       0.88068578
H       -2.53178809       1.02803014      -0.88176817
H       -1.26815427      -1.11766701      -0.88259685
H       -1.26805230      -1.11867942       0.87990883
H        0.00034033       1.02457487       0.88119298
H        0.00015474       1.02589833      -0.88126120
H        1.26786730      -1.11779095      -0.88316089
H        1.26757783      -1.11961988       0.87933913
H        2.53129836       1.02644494       0.88173154
H        2.53176377       1.02813045      -0.88071025
H        3.80259407      -1.11387243      -0.88264980
H        3.80190658      -1.11593560       0.87994830
H        5.06163005       1.03243955       0.88344203
H        5.06171682       1.03534606      -0.87953215
H        6.34004216      -1.10038052      -0.88308048
H        6.33975343      -1.10369204       0.87974312
H        7.61413928       1.04722536      -0.87891929
H        8.48431808      -0.21093269       0.00024633
H        7.61395518       1.04367833       0.88425743
