18
Properties=species:S:1:pos:R:3 pbc="F F F"
C       -8.30836981      -0.00000147       0.00001111
C       -6.99869253      -0.00000029       0.00000812
C       -5.73491607      -0.00000001       0.00000435
C       -4.45258835       0.00000150      -0.00000053
C       -3.18611188       0.00000275      -0.00000390
C       -1.90683580       0.00000365      -0.00000618
C       -0.63931071       0.00000534      -0.00000892
C        0.63936204       0.00001078      -0.00002087
C        1.90686446       0.00001156      -0.00003682
C        3.18611609       0.00000542      -0.00003074
C        4.45255342      -0.00001945      -0.00005967
C        5.73488923      -0.00008995       0.00015140
C        6.99867062       0.00001788       0.00012784
C        8.30836779       0.00004290      -0.00011386
H       -8.87207671       0.91946164      -0.00028495
H       -8.87207498      -0.91946558       0.00031099
H        8.87206589       0.91960208       0.00015799
H        8.87210403      -0.91948629      -0.00043813
