20
Properties=species:S:1:pos:R:3 pbc="F F F"
C       -9.58225447      -0.00001068      -0.00032492
C       -8.27240849       0.00001761       0.00028876
C       -7.00853209       0.00001488       0.00034732
C       -5.72603141      -0.00000710      -0.00001699
C       -4.45944667       0.00000349      -0.00007024
C       -3.18007853      -0.00000613      -0.00006967
C       -1.91234005      -0.00000031      -0.00005229
C       -0.63382630      -0.00000036      -0.00003618
C        0.63418867      -0.00000254      -0.00003375
C        1.91265555      -0.00000027      -0.00003323
C        3.18033487      -0.00000148      -0.00003771
C        4.45957261      -0.00000076      -0.00003358
C        5.72602751      -0.00002629      -0.00004020
C        7.00836566      -0.00003562       0.00016947
C        8.27210664       0.00004983       0.00012925
C        9.58185870       0.00000864      -0.00011532
H      -10.14627302      -0.91936227      -0.00043928
H      -10.14627521       0.91933626      -0.00020960
H       10.14514783       0.91973410      -0.00021185
H       10.14511076      -0.91974262       0.00001793
