5
Properties=species:S:1:pos:R:3 pbc="F F F"
C       -0.00000034       0.00000005      -0.00000006
H        0.64176619       0.24380907      -0.83652842
H        0.59774062      -0.09735860       0.89683543
H       -0.72955965       0.78753119       0.13647460
H       -0.50994306      -0.93398223      -0.19678089
