6
Properties=species:S:1:pos:R:3 pbc="F F F"
C       -0.65815291       0.00000005      -0.00000002
C        0.65815304       0.00000005      -0.00000002
H       -1.22939832       0.91393257       0.00000011
H       -1.22939736      -0.91393311       0.00000011
H        1.22939757       0.91393332       0.00000011
H        1.22939661      -0.91393386       0.00000011
