23
Properties=species:S:1:pos:R:3 pbc="F F F"
C       -3.78972279       0.37144673       0.00087441
C       -2.53675083      -0.49580238      -0.00022529
C       -1.26531226       0.34915945      -0.00078616
C       -0.00000008      -0.50475475      -0.00035459
C        1.26531233       0.34915918      -0.00046909
C        2.53675064      -0.49580257       0.00055880
C        3.78972291       0.37144683       0.00029922
H       -4.68513690      -0.24594361       0.00117471
H       -3.81240257       1.00897945      -0.88054472
H       -3.81131748       1.00822136       0.88286971
H       -2.54255457      -1.14074026      -0.88203934
H       -2.54140165      -1.14122916       0.88124068
H       -1.26408593       0.99542658       0.88029938
H       -1.26419830       0.99449680      -0.88255248
H        0.00011651      -1.15097170      -0.88146095
H       -0.00011700      -1.15033104       0.88122456
H        1.26382134       0.99553771       0.88053461
H        1.26446347       0.99438480      -0.88231719
H        2.54225726      -1.14164678      -0.88059374
H        2.54169883      -1.14032259       0.88268625
H        3.81210885       1.00797773      -0.88185254
H        4.68513722      -0.24594292       0.00099317
H        3.81161168       1.00922326       0.88156176
