12
Properties=species:S:1:pos:R:3 pbc="F F F"
C       -4.48659551      -0.00001052      -0.00012658
C       -3.17770954       0.00005464       0.00010341
C       -1.91474305      -0.00002259       0.00009583
C       -0.63235366      -0.00003155      -0.00001229
C        0.63221562       0.00000301      -0.00001743
C        1.91465348       0.00000176      -0.00001325
C        3.17770474       0.00000265      -0.00001077
C        4.48667575       0.00000566      -0.00000780
H       -5.05031766       0.91978092      -0.00027709
H       -5.05028771      -0.91983067       0.00016131
H        5.05120762       0.91936080       0.00021093
H        5.05121090      -0.91934754      -0.00022763
