8

C          1.04746        0.03807        0.07725
C          0.54474       -0.96258       -0.94620
Cl        -1.23628       -0.98484       -0.96580
Cl         2.82849        0.05886        0.09830
H          0.70937       -0.21842        1.08592
H          0.70925        1.05224       -0.15647
H          0.88401       -1.97656       -0.71329
H          0.88177       -0.70527       -1.95504