12
Properties=species:S:1:pos:R:3 pbc="F F F"
C        1.38458345       0.00000000       0.00000000
C        0.69229001       1.19907778       0.00000000
C       -0.69229001       1.19907778       0.00000000
C       -1.38458345       0.00000000       0.00000000
C       -0.69229001      -1.19907778       0.00000000
C        0.69229001      -1.19907778       0.00000000
H        2.46505626       0.00000000       0.00000000
H        1.23252391       2.13479230       0.00000000
H       -1.23252391       2.13479230       0.00000000
H       -2.46505626       0.00000000       0.00000000
H       -1.23252391      -2.13479230       0.00000000
H        1.23252391      -2.13479230       0.00000000
