9
Properties=species:S:1:pos:R:3 pbc="F F F"
C        1.12405912      -0.04304212       0.45533666
C        0.00016514       0.86279551       0.00095381
C       -1.12438180      -0.04135200      -0.45553704
O       -2.05462403      -0.35898639       0.22327959
O        2.05468566      -0.35831142      -0.22401109
H        0.99395911      -0.41982496       1.48481761
H       -0.33969327       1.47116111       0.83830365
H        0.34160161       1.47338381      -0.83421451
H       -0.99496847      -0.41492962      -1.48627405
