15
Properties=species:S:1:pos:R:3 pbc="F F F"
C        2.43932078       0.00000953      -0.00591096
C        0.94036869       0.00004615       0.00894113
C        0.23136798      -1.19464818       0.00488473
C       -1.15213539      -1.19639177      -0.00212409
C       -1.84851792      -0.00004077      -0.00379552
C       -1.15221297       1.19634768      -0.00164153
C        0.23130269       1.19469237       0.00443618
H        2.80017026      -0.00121338      -1.03522326
H        2.83317263       0.88579120       0.48734615
H        2.83308613      -0.88468186       0.48937838
H        0.76979170      -2.13222719       0.00801340
H       -1.68856245      -2.13437710      -0.00414820
H       -2.92868330      -0.00008463      -0.00606996
H       -1.68871834       2.13429216      -0.00345834
H        0.76963352       2.13232219       0.00708653
