56
Properties=species:S:1:pos:R:3 pbc="F F F"
O       -3.08176993      -1.59549022       1.33755138
O       -5.16010883      -1.91260797       0.59987615
C       -3.13461422      -0.35143012      -1.46172839
C       -0.38054729       0.89602276      -2.32692240
C       -0.74079980       2.46224345       0.25153681
C        1.66236995       1.62674913       1.97941490
C       -3.91671874       0.00227545      -0.18262900
C       -2.91428680       0.86891171      -2.30058497
C        0.39100110      -1.15699566       1.29263179
C       -1.75503690       1.39163978      -2.67001337
C        0.50062974       2.03330833      -1.88671353
C        0.34009116       2.71436484      -0.76119945
C       -0.40940760       3.00851448       1.61201956
C        1.96661306      -1.98765542      -1.30873845
C        0.63186867       2.65398845       2.34941233
C        1.53343041       0.43876533       2.88977720
C        0.98477397      -0.73141229       2.60283142
C        0.87152175      -2.52635993       0.91477120
C        1.52918773      -2.87612124      -0.17973953
C        3.42688397      -2.20347397      -1.59410980
C        4.27974681      -0.37009349      -0.09779774
C        4.42096288      -1.51056108      -1.06079895
C       -4.15758143      -1.25248695       0.61125996
C        4.25458695       0.97028661      -0.83588112
H       -2.19141688      -0.82326852      -1.18730741
H       -3.71946322      -1.07495790      -2.03697942
H        0.05464763       0.42625612      -3.21327918
H       -0.43840040       0.13987309      -1.54250573
H       -1.66485973       2.92439988      -0.10841837
H       -0.93106593       1.38783337       0.32153447
H        2.65666356       2.06299939       2.11733487
H        1.55391229       1.34569355       0.93443963
H       -4.87750557       0.44471979      -0.44530547
H       -3.33676297       0.70219998       0.41908729
H       -3.82884232       1.34792698      -2.62742401
H       -0.69882013      -1.19433960       1.41047846
H        0.62166627      -0.43282152       0.51500630
H       -1.75885811       2.27716361      -3.29302542
H        1.29534796       2.31292388      -2.56502056
H        1.00926802       3.53328233      -0.53306393
H       -1.08822283       3.75815164       1.99684503
H        1.78166892      -0.94048236      -1.08066262
H        1.39061140      -2.24927962      -2.20235357
H        0.76919687       3.10541147       3.32387660
H        1.90609930       0.60379246       3.89316475
H        0.94656455      -1.49062736       3.37459435
H        0.64213011      -3.29173031       1.64678850
H        1.80934210      -3.91472307      -0.30758039
H        3.65177551      -3.01678807      -2.27199722
H        3.37169561      -0.48215631       0.49450083
H        5.12800365      -0.38044902       0.59021512
H        5.43702014      -1.74602990      -1.35108663
H        3.39717684       1.02064639      -1.50312989
H        5.15734570       1.09428595      -1.43033974
H        4.18958292       1.79440510      -0.12930941
H       -3.24494323      -2.42368108       1.81603226
