148
Properties=species:S:1:pos:R:3 pbc="F F F"
C        6.73586055      -1.37412594       2.26786201
C        5.81455566      -0.69504889       1.47580871
C        5.82145503       0.69969846       1.46673362
C        6.74983633       1.38036022       2.24894673
C        7.67241791       0.69604976       3.01676020
C        7.66492987      -0.68875228       3.02684520
C        4.84841794       1.49588192       0.69292709
C        4.00364352       2.36083715       1.36465656
C        3.15248310       3.24804431       0.70673348
C        3.15085714       3.24202682      -0.72871133
C        3.99820908       2.34918167      -1.38311538
C        4.84691570       1.49083940      -0.70775761
C        2.27550887       4.13792788       1.45763937
C        1.66645245       5.10667501       0.69568434
C        1.66030415       5.09741341      -0.72697944
C        2.26343354       4.11853832      -1.48202081
C        0.50961999       5.78756755      -1.15638065
C       -0.19455213       6.22276320      -0.01397371
C        0.52080251       5.80355629       1.12743137
C       -1.55999612       6.43097821      -0.00812227
C       -2.16221832       6.39025391      -1.30832477
C       -1.47697095       5.97303338      -2.42353143
C       -0.11079773       5.54254972      -2.36862239
C        0.63753908       4.69266696      -3.23875591
C        1.75977534       4.01504247      -2.81493971
C       -2.14722153       6.41432038       1.29929074
C       -1.44977157       6.01575071       2.41426426
C       -0.08462064       5.58240140       2.35175608
C        0.67429784       4.74800536       3.22704633
C        1.78548501       4.05513135       2.79729017
C        5.82176447       0.69003210      -1.47438821
C        5.82003881      -0.70448267      -1.46475213
C        6.74910721      -1.39227275      -2.23974815
C        7.68140016      -0.71443866      -3.00144089
C        7.68089507       0.67041532      -3.01433468
C        6.75053387       1.36275305      -2.26302710
C        4.83893847      -1.49254238       0.70671878
C        3.99152805      -2.35374608       1.38040863
C        3.14510839      -3.24613954       0.72410086
C        3.14476463      -3.24667976      -0.71132370
C        3.99401681      -2.35680632      -1.36778932
C        4.84047991      -1.49517778      -0.69394663
C        2.26712943      -4.13368366      -1.46460552
C        1.66016369      -5.10615176      -0.70556216
C        1.65574380      -5.10238478       0.71757084
C        2.26050682      -4.12721379       1.47567073
C        0.50531958      -5.79331350       1.14597785
C       -0.20055839      -6.22354881       0.00266204
C        0.51365375      -5.80026664      -1.13818181
C        1.77503844      -4.04411505      -2.80283583
C        0.66262466      -4.73406019      -3.23369991
C       -0.09428333      -5.57153203      -2.36015538
C       -1.45993749      -6.00248810      -2.42269783
C       -2.15601705      -6.40524009      -1.30868228
C       -1.56611231      -6.43031274      -0.00261747
C        1.75732812      -4.02626085       2.80882880
C        0.63539328      -4.70519598       3.23191693
C       -0.11405223      -5.55141341       2.35959114
C       -1.48036872      -5.98155937       2.41417425
C       -2.16676833      -6.39454535       1.29827197
H        0.25863054       4.49607417      -4.23270326
H        2.21420937       3.30990726      -3.49718767
H        2.24663274       3.36049662       3.48577436
H        0.30868562       4.56936884       4.22918992
H       -1.97641302       5.93835079       3.35614192
H       -3.20134629       6.63698753       1.39770142
H       -3.21747323       6.61055551      -1.39900946
H       -2.01395650       5.87754491      -3.35774730
H       -1.98784563      -5.91782118      -3.36317344
H       -3.21099133      -6.62399740      -1.40634704
H       -3.22159795      -6.61615190       1.38917473
H       -2.01662150      -5.88964735       3.34904998
H        0.25658307      -4.51017787       4.22616743
H        2.21168752      -3.32235767       3.49245805
H        2.23408695      -3.34543349      -3.48841009
H        0.29457672      -4.55036732      -4.23400820
H        4.02999005       2.36854919       2.44513292
H        4.01947379       2.34792610      -2.46377185
H        4.01352012      -2.35599894       2.46106663
H        4.01843887      -2.36111684      -2.44843135
H        6.74189318       2.44362507      -2.27236839
H        8.40127216       1.20913579      -3.61202019
H        8.40342739      -1.26447635      -3.58668439
H        6.73762181      -2.47318107      -2.23039582
H        6.74570679       2.46127674       2.24119262
H        8.39211934       1.24091397       3.60957633
H        8.37790025      -1.23283324       3.62853282
H        6.72151077      -2.45494430       2.27387571
C       -2.50119378       1.75271684       3.05819287
C       -3.66566935       0.90872003       3.15934759
C       -3.21871681      -0.44041101       3.39893887
C       -1.77802904      -0.43032893       3.44554079
C       -1.33431677       0.92484841       3.23475951
C       -0.18895271       1.17156566       2.49019941
C        0.56127270       0.07461532       1.93070169
C        0.13154891      -1.22973445       2.13232936
C       -1.05864114      -1.48699042       2.90399546
C       -1.75329776      -2.59281756       2.29522866
C       -3.14004423      -2.60538561       2.25306340
C       -3.88699644      -1.50747877       2.81384140
C       -5.02817603      -1.26601731       1.96692521
C       -5.45869202       0.03336827       1.73651028
C       -4.76527681       1.14107586       2.34441263
C       -4.74245159       2.22651388       1.39605898
C       -5.42218234       1.78958259       0.20220875
C       -5.86467618       0.43402877       0.41257520
C       -5.82473653      -0.47963195      -0.63172053
C       -5.37778767      -1.82895603      -0.39259040
C       -4.98668020      -2.21489867       0.88246239
C       -3.82000563      -3.04292693       1.05922120
C       -3.08648127      -3.45121691      -0.04548309
C       -1.64669737      -3.43981778       0.00065002
C       -0.99293658      -3.01893562       1.14824485
C        0.17068025      -2.17687091       1.04754547
C        0.63795328      -1.78285128      -0.19778726
C        1.08820505      -0.43070399      -0.40823855
C        1.04784328       0.48210033       0.63600403
C        0.59397526       1.82847826       0.39656051
C        0.20235001       2.21580978      -0.87676290
C        0.24624890       1.26822719      -1.96116381
C        0.68061675      -0.02979505      -1.73193491
C       -0.01659024      -1.13697406      -2.33793740
C       -0.04170695      -2.22039645      -1.38887695
C       -1.16171736      -3.03402151      -1.29191269
C       -2.30165584      -2.79390904      -2.13941899
C       -3.49224495      -3.05224385      -1.36917612
C       -4.61661573      -2.25595344      -1.53996868
C       -4.59347015      -1.17055589      -2.48843185
C       -5.34005685      -0.07283301      -1.92706641
C       -4.91358008       1.23254436      -2.12977295
C       -4.95533694       2.18149407      -1.04522949
C       -3.79125865       3.02565651      -1.14633003
C       -3.02963777       2.59785545      -2.29341026
C       -3.72350508       1.49021848      -2.90126893
C       -3.00384607       0.43280864      -3.44134640
C       -3.44664270      -0.92244884      -3.23052475
C       -2.27948527      -1.75024071      -3.05380885
C       -1.11499468      -0.90632882      -3.15489323
C       -1.56312444       0.44255992      -3.39428703
C       -0.89516070       1.50889951      -2.80790640
C       -1.64318980       2.60428317      -2.24574438
C       -0.96446266       3.04042598      -1.05248683
C       -1.69640074       3.45269460       0.04998714
C       -3.13626820       3.44395860       0.00319761
C       -3.62078801       3.03875368       1.29821489
C       -2.47881438       2.79685484       2.14406469
C       -1.29018865       3.05310141       1.37158860
C       -0.16794849       2.25472872       1.54097015
